125
Lattice="18.258244902550622 0.0 0.0 0.0 18.258244902550622 0.0 0.0 0.0 18.258244902550622" Properties=species:S:1:pos:R:3 pbc="F F F"
Ar      14.49269591      12.03198154       2.70252398
Ar       5.70207626       2.49241111      14.19992875
Ar       5.73639701      11.38689709       0.18231552
Ar      17.71937119      12.89093225      10.72700768
Ar      12.15708068      10.85779488       1.76037574
Ar       9.59350726      15.79423828      17.91609114
Ar      13.14636192      16.34740312       8.75464848
Ar      11.50439490      11.25891373       9.34380720
Ar       5.96620042      11.21375567      16.41224367
Ar       6.14786245       7.07541505      15.53100208
Ar       6.79096398      11.40067863       2.37650055
Ar       6.49419735      16.39370637       9.17576695
Ar       8.60645187       3.85509886       1.01979656
Ar       2.59402445      11.10443334       0.42486827
Ar       8.62392346      17.41166779       4.81220421
Ar      12.45527394       3.29840957       0.11232604
Ar      16.64644220      15.17333543       0.43007423
Ar      16.06518881       3.11085818       0.89792864
Ar       8.90820591      11.93435626       6.25081511
Ar      15.90449134      13.48759561      14.03946306
Ar       5.18204546      16.75886430       3.42786340
Ar       9.33081878       6.00729368       1.33740510
Ar       4.16031846       0.89905703      14.36097324
Ar       4.47066089       9.79519923       1.13074420
Ar      10.15521283       9.83862562      13.01193720
Ar       2.08932605      18.24014313       5.32876857
Ar       4.41985616       9.90075774       9.86450016
Ar      10.19696158      10.26889782       2.77687115
Ar       1.90345277      11.87200248      11.22579559
Ar       0.81774690       5.99791294       3.45071364
Ar      17.01575071       4.59767176      11.29679622
Ar      12.89219570       2.58717046      14.24864217
Ar       8.24876958      15.21663483      14.72702926
Ar       6.67526098      10.17732443      13.37370865
Ar       4.03809222       0.39029967       3.24584639
Ar      13.36575590       5.19202436       9.55353041
Ar      11.71648619       7.42857794       4.40671933
Ar       4.41195770       5.82453419      10.05350555
Ar      14.63128331       5.55139518      10.97217548
Ar      18.13394922       3.60657443       4.02153712
Ar      12.82338562      16.56645305       7.09396890
Ar      11.52450336       2.54877790       7.30333660
Ar      15.80592208      13.05965552       6.13373414
Ar       4.85864880       7.40878793       0.23007603
Ar       0.61922235       2.96339549      12.85695744
Ar      12.92474325       0.58755461      12.06951128
Ar      11.44193017       4.26328999       2.52540247
Ar      11.97618478       5.88026632       6.43811803
Ar       4.31389207      11.66257593       7.51539436
Ar      13.28664308       8.14636278      14.05240524
Ar      11.99885234       2.52821356      15.15034760
Ar       0.61107079       6.68002862      15.22768929
Ar       6.39264024      14.04197701       8.29126710
Ar       3.93122704      17.77129150       6.81719339
Ar       0.73646364       0.09316393       8.78764904
Ar       5.02910499      15.64373633       6.62890520
Ar      10.72016936       1.32924111      10.55573252
Ar       7.61646288      16.37284345       1.16583659
Ar      16.69398229      11.96779330      10.77999628
Ar       7.29225575       3.02395171      12.78989372
Ar      15.31800075       2.85424425      15.34487222
Ar       7.04271332      16.22527369       9.35413126
Ar      17.13653334       5.36235660       0.40598200
Ar       3.20714897       3.43786896       7.92878047
Ar      11.22969765      11.16043510       7.10294591
Ar      11.95940081       9.17611058       4.32866722
Ar      17.89927382       5.72012926       5.16065888
Ar       9.34896047      11.82666986       1.86440565
Ar      10.58605016      17.00961502      13.62627915
Ar      17.35274654      14.14303137       0.95165761
Ar       2.22622714       6.83441713      10.66364860
Ar      13.03605966      12.35686103      17.71589972
Ar       3.00510681       0.15237824       9.29010920
Ar      17.97528461       3.46474882      13.38836338
Ar       5.97025821      10.43855777       4.49367684
Ar       0.35838619       8.34658186      16.42322999
Ar       4.96515352      18.10364702       9.23240323
Ar       3.49464740      13.79322123       4.21118343
Ar      10.92246512       0.51279002       9.49463737
Ar       4.89440241      10.82114124       5.10381839
Ar       7.18574224       9.76487310       6.93405368
Ar      14.20045480      13.35965345      11.79423517
Ar      12.46136974       0.21114541       4.98311112
Ar      17.67319639      14.63529993       3.47770957
Ar       9.86591013      11.11790645      14.58494578
Ar       8.89334642       1.95124007      13.36158252
Ar      11.08706198      16.81264601      14.58926516
Ar      11.85090362       9.93182217       6.01704186
Ar       4.54466127      15.74032115      16.04687151
Ar       0.90554111       0.45839615      15.99544717
Ar       4.77104069       6.87583439       9.46840274
Ar      10.03760164      14.00159737      14.09757095
Ar       1.59784818       6.93491037       0.95460606
Ar      18.09451237       4.16108233       9.24566097
Ar       5.69668698       9.94935769      15.53510311
Ar      10.86177083       3.78871734      10.29295980
Ar      17.27922577       8.19498900       1.61981361
Ar      10.82921254      14.44195887       2.95811838
Ar       1.04413816      13.36276140       9.66535594
Ar      11.40109800      11.86495182      11.04816537
Ar       6.73964579       5.79767918       9.68128600
Ar       6.28767666      16.54401139      11.96565904
Ar      16.72675761       2.28062908       2.75014230
Ar      15.64848850       3.96783366      15.66726955
Ar       0.45386992      15.18426299      10.45328980
Ar       3.67250989      16.58573090      11.80532625
Ar      16.88341972       3.11013360      10.98523149
Ar       8.50839807       4.01624283       3.75556806
Ar       4.05694173       5.95947895       6.14155358
Ar      17.71013081       6.67029089      10.07458857
Ar      15.61863683       6.81183063      14.48436535
Ar      14.40470625       5.33946936       2.82872910
Ar       1.43687255      12.06369346       9.09798058
Ar      12.99359111      10.25038188       0.65458162
Ar      14.51736174       6.35921362       0.32981693
Ar       6.40294662      11.10908442       0.98832514
Ar       3.51985460       2.24187178      10.32451369
Ar       7.23402044      12.73185468       0.76603574
Ar      14.11831987      17.55551731      13.79447240
Ar      12.21337168       4.15269028       5.34598737
Ar       6.01192020       8.45223325       7.50403746
Ar       3.62651602      15.43997034      11.86065459
Ar       9.38649829      13.11112853       2.62696584
Ar       4.81669583       0.01006615       7.94116001
Ar      16.45082099      13.88133351       4.21996931
